Distribution/8500Node/DSSfiles/8500Node_Curr_Elem.Txt

CIRCUIT ELEMENT CURRENTS

(Currents into element from indicated bus)

Power Delivery Elements

  Bus                Phase    Magnitude, A     Angle      (Real)   +j  (Imag)

ELEMENT = "Vsource.SOURCE"
8500NODE                 1             49.3 /_  172.0 =    -48.817 +j    6.8793
8500NODE                 2           45.245 /_   54.5 =     26.291 +j    36.822
8500NODE                 3           49.166 /_  -62.7 =     22.526 +j   -43.701
------------
8500NODE                 0             49.3 /_   -8.0 =     48.817 +j   -6.8793
8500NODE                 0           45.245 /_ -125.5 =    -26.291 +j   -36.822
8500NODE                 0           49.166 /_  117.3 =    -22.526 +j    43.701

ELEMENT = "Line.HVMV_SUB_CONNECTOR"
_HVMV_SUB_LSB            1           552.85 /_  -37.2 =     440.61 +j   -333.93
_HVMV_SUB_LSB            2           526.43 /_ -157.5 =    -486.28 +j   -201.64
_HVMV_SUB_LSB            3           498.66 /_   88.7 =     11.509 +j    498.53
------------
HVMV_SUB_48332           1           552.85 /_  142.8 =    -440.61 +j    333.93
HVMV_SUB_48332           2           526.43 /_   22.5 =     486.28 +j    201.64
HVMV_SUB_48332           3           498.66 /_  -91.3 =    -11.509 +j   -498.53

ELEMENT = "Line.LN5502549-1"
M1009763                 2           1.9561 /_  179.3 =     -1.956 +j  0.024829
------------
L2673322                 2           1.9563 /_   -0.7 =     1.9561 +j -0.025372

ELEMENT = "Line.LN6259988-1"
M1069148                 3           1.4469 /_   66.7 =    0.57295 +j    1.3286
------------
L2673309                 3           1.4474 /_ -113.4 =   -0.57482 +j   -1.3283

ELEMENT = "Line.LN6077796-1"
M1069588                 2           1.6675 /_ -179.0 =    -1.6672 +j -0.030539
------------
L2804270                 2           1.6676 /_    1.0 =     1.6673 +j  0.030346

ELEMENT = "Line.LN5835135-2"
M3036164                 2           16.541 /_  179.6 =    -16.541 +j   0.12171
------------
L2935553                 2           16.541 /_   -0.4 =     16.541 +j   -0.1225

ELEMENT = "Line.LN5896826-1"
M1209749                 2          0.82371 /_ -170.1 =   -0.81136 +j  -0.14208
------------
L2748840                 2          0.82466 /_    9.7 =     0.8129 +j   0.13873

ELEMENT = "Line.LN5714038-1"
M1108264                 2           2.1879 /_ -173.8 =    -2.1751 +j  -0.23673
------------
M1108263                 2           2.1884 /_    6.2 =     2.1757 +j   0.23507

ELEMENT = "Line.LN5653457-1"
L3085398                 1           20.046 /_  -58.7 =     10.406 +j   -17.134
L3085398                 2           41.963 /_  179.3 =     -41.96 +j   0.49688
L3085398                 3           15.945 /_   66.0 =     6.4961 +j    14.562
------------
M1026891                 1           20.047 /_  121.3 =    -10.404 +j    17.136
M1026891                 2           41.964 /_   -0.7 =     41.961 +j  -0.49912
M1026891                 3           15.946 /_ -114.0 =    -6.4984 +j   -14.562

ELEMENT = "Line.LN5835173-1"
L3216367                 1            28.55 /_  -58.1 =     15.086 +j   -24.239
L3216367                 2           63.239 /_  179.5 =    -63.236 +j   0.56254
L3216367                 3           48.116 /_   65.4 =     20.041 +j    43.744
------------
M1069468                 1           28.551 /_  121.9 =    -15.086 +j     24.24
M1069468                 2           63.239 /_   -0.5 =     63.236 +j  -0.56375
M1069468                 3           48.116 /_ -114.6 =    -20.042 +j   -43.744

ELEMENT = "Line.LN6321415-1"
M1142800                 2           1.4059 /_ -172.4 =    -1.3934 +j  -0.18701
------------
M1142799                 2           1.4064 /_    7.6 =     1.3941 +j   0.18547

ELEMENT = "Line.LN5565092-1"
M1047592                 3            2.166 /_   65.9 =    0.88496 +j     1.977
------------
P827512                  3            2.166 /_ -114.1 =   -0.88502 +j    -1.977

ELEMENT = "Line.LN6073648-1"
M1047339                 1           3.0821 /_  -54.6 =     1.7857 +j   -2.5121
------------
P895104                  1           3.0822 /_  125.4 =    -1.7856 +j    2.5122

ELEMENT = "Line.LN5774457-1"
M1026915                 1           30.096 /_  -58.8 =     15.578 +j   -25.751
M1026915                 2           23.954 /_  179.5 =    -23.953 +j   0.19743
M1026915                 3           22.937 /_   65.9 =     9.3629 +j    20.939
------------
M1026920                 1           30.096 /_  121.2 =    -15.577 +j    25.752
M1026920                 2           23.954 /_   -0.5 =     23.953 +j  -0.19854
M1026920                 3           22.937 /_ -114.1 =     -9.364 +j   -20.939

ELEMENT = "Line.LN5534966-3"
N1138596                 1           11.108 /_  -58.3 =     5.8355 +j   -9.4516
------------
L3254207                 1           11.108 /_  121.7 =    -5.8352 +j    9.4519

ELEMENT = "Line.LN5859996-1"
M1069464                 2           2.7973 /_  179.7 =    -2.7972 +j  0.012826
------------
P873787                  2           2.7973 /_   -0.3 =     2.7973 +j -0.012934

ELEMENT = "Line.LN6138610-2"
N1144665                 1           119.17 /_  -58.4 =      62.52 +j   -101.45
N1144665                 2           90.664 /_  179.7 =    -90.663 +j   0.41058
N1144665                 3           104.05 /_   65.7 =     42.766 +j    94.852
------------
M1047515                 1           119.17 /_  121.6 =    -62.519 +j    101.45
M1047515                 2           90.664 /_   -0.3 =     90.663 +j   -0.4113
M1047515                 3           104.05 /_ -114.3 =    -42.767 +j   -94.852

ELEMENT = "Line.LN6258435-3"
N1137002                 1           2.5319 /_  -58.3 =      1.331 +j   -2.1538
------------
M1047707                 1           2.5323 /_  121.7 =    -1.3298 +j    2.1551

ELEMENT = "Line.LN5804790-1"
L2729406                 3           1.4683 /_   67.6 =    0.55972 +j    1.3574
------------
L2897768                 3           1.4691 /_ -112.5 =   -0.56307 +j    -1.357

ELEMENT = "Line.LN6900591-14"
L3649301                 1           4.5779 /_  -58.6 =      2.382 +j   -3.9094
------------
L3649302                 1           4.5782 /_  121.3 =    -2.3812 +j    3.9102

ELEMENT = "Line.LN6409873-1"
L2970842                 2           10.534 /_ -173.8 =    -10.472 +j   -1.1414
------------
M1089113                 2           10.535 /_    6.2 =     10.473 +j    1.1402

ELEMENT = "Line.LN6014135-1"
M1047312                 1           9.6952 /_  -54.6 =      5.612 +j   -7.9058
------------
P893163                  1           9.6952 /_  125.4 =     -5.612 +j    7.9059

ELEMENT = "Line.LN6077784-1"
L2822871                 1           57.963 /_  -58.8 =     30.051 +j   -49.564
L2822871                 2           69.389 /_  179.4 =    -69.385 +j   0.71025
L2822871                 3           42.634 /_   66.0 =     17.373 +j    38.934
------------
M1026872                 1           57.963 /_  121.2 =     -30.05 +j    49.566
M1026872                 2           69.389 /_   -0.6 =     69.386 +j  -0.71201
M1026872                 3           42.634 /_ -114.0 =    -17.374 +j   -38.933

ELEMENT = "Line.LN5744338-1"
M1026312                 2           27.214 /_ -175.7 =    -27.137 +j   -2.0423
------------
L2973163                 2           27.214 /_    4.3 =     27.137 +j    2.0414

ELEMENT = "Line.LN6991381-4"
L3728038                 1           5.0955 /_  -58.5 =     2.6655 +j   -4.3427
------------
L3728039                 1           5.0959 /_  121.5 =    -2.6645 +j    4.3438

ELEMENT = "Line.LN5774480-1"
M1069567                 2           31.532 /_ -178.9 =    -31.526 +j  -0.58906
------------
M1069582                 2           31.533 /_    1.1 =     31.527 +j   0.58648

ELEMENT = "Line.LN5986938-3"
N1140830                 1           5.4487 /_  -58.5 =     2.8486 +j   -4.6448
------------
L3216351                 1           5.4488 /_  121.5 =    -2.8485 +j    4.6449

ELEMENT = "Line.LN5894230-1"
L2952007                 3           1.4444 /_   70.9 =    0.47187 +j    1.3652
------------
L2861158                 3            1.445 /_ -109.2 =   -0.47409 +j    -1.365

ELEMENT = "Line.LN5683858-3"
N1140827                 1           2.6027 /_  -58.6 =     1.3554 +j   -2.2219
N1140827                 2            4.156 /_ -179.8 =     -4.156 +j  -0.01199
N1140827                 3           2.9522 /_   66.1 =     1.1976 +j    2.6983
------------
M1026726                 1           2.6028 /_  121.4 =    -1.3551 +j    2.2223
M1026726                 2           4.1561 /_    0.2 =     4.1561 +j  0.011538
M1026726                 3           2.9522 /_ -113.9 =    -1.1981 +j   -2.6982

ELEMENT = "Line.LN5920279-5"
L2730106                 1           351.13 /_  -48.6 =      232.3 +j    -263.3
L2730106                 2            322.3 /_ -169.6 =    -316.98 +j   -58.355
L2730106                 3           224.75 /_   80.6 =     36.777 +j    221.72
------------
N1142099                 1           351.13 /_  131.4 =     -232.3 +j     263.3
N1142099                 2            322.3 /_   10.4 =     316.98 +j    58.355
N1142099                 3           224.75 /_  -99.4 =    -36.778 +j   -221.72

ELEMENT = "Line.LN6439600-1"
M1026658                 1           1.2961 /_  -58.6 =    0.67459 +j   -1.1067
------------
L3172805                 1           1.2966 /_  121.3 =   -0.67329 +j    1.1081

ELEMENT = "Line.LN5589097-1"
P895112                  1           1.9722 /_  -52.6 =     1.1977 +j   -1.5669
------------
L3048962                 1           1.9723 /_  127.4 =    -1.1974 +j    1.5673

ELEMENT = "Line.LN5651975-1"
L2991914                 1           61.621 /_  -58.5 =     32.201 +j   -52.538
L2991914                 2           14.806 /_ -179.5 =    -14.805 +j  -0.12184
L2991914                 3           33.351 /_   66.2 =     13.469 +j    30.511
------------
M1047503                 1           61.622 /_  121.5 =    -32.201 +j    52.539
M1047503                 2           14.806 /_    0.5 =     14.805 +j    0.1209
M1047503                 3           33.351 /_ -113.8 =    -13.469 +j    -30.51

ELEMENT = "Line.LN5865236-1"
M1047751                 1           2.5441 /_  -58.1 =     1.3449 +j   -2.1596
------------
L2973154                 1           2.5441 /_  121.9 =    -1.3448 +j    2.1597

ELEMENT = "Line.LN5593232-1"
L3010565                 3           1.4473 /_   66.7 =    0.57267 +j    1.3292
------------
L2897775                 3            1.448 /_ -113.4 =   -0.57519 +j   -1.3289

ELEMENT = "Line.LN5740283-1"
M1125955                 3           1.7119 /_   68.3 =    0.63331 +j    1.5904
------------
M1125957                 3           1.7119 /_ -111.7 =   -0.63343 +j   -1.5904

ELEMENT = "Line.LN6106559-1"
M1069640                 2           3.9054 /_ -179.0 =    -3.9047 +j -0.071458
------------
L2804269                 2           3.9058 /_    1.0 =     3.9052 +j   0.06976

ELEMENT = "Line.LN5714056-3"
M1026702                 1           51.778 /_  -58.5 =     27.028 +j   -44.164
M1026702                 2           11.361 /_ -179.6 =    -11.361 +j  -0.07977
M1026702                 3             25.5 /_   66.2 =     10.304 +j    23.326
------------
N1139551                 1           51.779 /_  121.5 =    -27.026 +j    44.166
N1139551                 2           11.362 /_    0.4 =     11.362 +j  0.076397
N1139551                 3           25.501 /_ -113.8 =    -10.307 +j   -23.325

ELEMENT = "Line.LN5985355-3"
N1136355                 2           55.015 /_ -178.9 =    -55.005 +j   -1.0641
------------
L2783231                 2           55.015 /_    1.1 =     55.005 +j    1.0629

ELEMENT = "Line.LN5531956-1"
L2748143                 1           1.2949 /_  -57.0 =    0.70464 +j   -1.0863
------------
L3251854                 1           1.2952 /_  122.9 =   -0.70384 +j    1.0872

ELEMENT = "Line.LN5650048-1"
M1069610                 2           1.3941 /_ -178.9 =    -1.3939 +j -0.025915
------------
M1069600                 2           1.3944 /_    1.0 =     1.3942 +j  0.024862

ELEMENT = "Line.LN6290203-1"
M1069424                 1           21.938 /_  -58.1 =     11.596 +j   -18.623
M1069424                 2            54.56 /_  179.4 =    -54.557 +j   0.53512
M1069424                 3           39.355 /_   65.4 =     16.413 +j     35.77
------------
L2935549                 1           21.938 /_  121.9 =    -11.594 +j    18.625
L2935549                 2            54.56 /_   -0.6 =     54.558 +j   -0.5377
L2935549                 3           39.356 /_ -114.7 =    -16.415 +j   -35.769

ELEMENT = "Line.LN6134414-1"
P895089                  3           2.8422 /_   66.9 =     1.1159 +j     2.614
------------
L3235242                 3           2.8425 /_ -113.1 =     -1.117 +j   -2.6138

ELEMENT = "Line.LN6259998-2"
M1026795                 3           1.7412 /_   66.0 =    0.70915 +j    1.5903
------------
N1140522                 3           1.7413 /_ -114.0 =   -0.70939 +j   -1.5903

ELEMENT = "Line.LN6078767-1"
L3030199                 1           107.17 /_  -30.0 =     92.847 +j   -53.517
L3030199                 2           125.11 /_ -154.4 =    -112.78 +j   -54.156
L3030199                 3           155.04 /_   83.1 =     18.684 +j    153.91
------------
M1125934                 1           107.17 /_  150.0 =    -92.846 +j    53.518
M1125934                 2           125.11 /_   25.6 =     112.78 +j    54.155
M1125934                 3           155.04 /_  -96.9 =    -18.685 +j   -153.91

ELEMENT = "Line.LN6017300-1"
M1069189                 3          0.86411 /_   66.7 =    0.34214 +j   0.79349
------------
L2860487                 3           0.8645 /_ -113.4 =   -0.34366 +j  -0.79326

ELEMENT = "Line.LN8979257-2"
221-312488               1           1.3608 /_  -54.0 =    0.79925 +j   -1.1014
221-312488               2           1.4347 /_ -174.9 =     -1.429 +j  -0.12796
221-312488               3           1.4302 /_   68.2 =    0.53005 +j    1.3283
------------
M1089183                 1           1.3612 /_  125.9 =   -0.79817 +j    1.1027
M1089183                 2           1.4351 /_    5.0 =     1.4296 +j    0.1263
M1089183                 3           1.4306 /_ -111.8 =   -0.53188 +j   -1.3281

ELEMENT = "Line.LN81048109-1"
M1108464                 2           4.3532 /_ -174.9 =     -4.336 +j  -0.38598
------------
L3102286                 2           4.3551 /_    5.0 =     4.3386 +j   0.37894

ELEMENT = "Line.293471"
F739845                  1           1.2955 /_  -54.7 =    0.74938 +j   -1.0568
F739845                  2           1.4231 /_ -175.4 =    -1.4186 +j  -0.11303
F739845                  3           1.4494 /_   66.1 =    0.58691 +j    1.3253
------------
293471                   1           1.2957 /_  125.3 =    -0.7489 +j    1.0574
293471                   2           1.4234 /_    4.5 =     1.4189 +j   0.11226
293471                   3           1.4496 /_ -113.9 =   -0.58772 +j   -1.3251

ELEMENT = "Line.LN5534965-2"
P827499                  1           1.2752 /_  -58.4 =    0.66879 +j   -1.0857
------------
N1139254                 1           1.2752 /_  121.6 =   -0.66872 +j    1.0858

ELEMENT = "Line.LN5655683-1"
M1026657                 1           20.424 /_  -58.6 =     10.643 +j   -17.431
------------
M1026656                 1           20.424 /_  121.4 =    -10.643 +j    17.431

ELEMENT = "Line.LN5686247-1"
M1108299                 2           1.9768 /_ -173.0 =    -1.9621 +j  -0.24057
------------
M1108300                 2           1.9768 /_    7.0 =     1.9621 +j   0.24046

ELEMENT = "Line.LN6048642-1"
L3198355                 2        0.0019101 /_  -68.2 =  0.00070963 +j -0.0017734
------------
L2805037                 2       1.819E-012 /_   90.0 =          0 +j 1.819E-012

ELEMENT = "Line.LN5928544-3"
N1137994                 3           14.604 /_   65.6 =     6.0321 +j      13.3
------------
M1069484                 3           14.605 /_ -114.4 =     -6.033 +j     -13.3

ELEMENT = "Line.LN6108172-1"
L2860504                 1           2.5911 /_  -58.6 =     1.3503 +j   -2.2114
------------
L2860493                 1            2.592 /_  121.3 =    -1.3478 +j    2.2141

ELEMENT = "Line.LN5532754-1"
M1026783                 1           56.908 /_  -58.5 =     29.723 +j   -48.529
M1026783                 2            14.81 /_ -179.6 =     -14.81 +j  -0.10765
M1026783                 3           27.835 /_   66.2 =     11.233 +j    25.468
------------
M1026780                 1           56.908 /_  121.5 =    -29.723 +j    48.529
M1026780                 2            14.81 /_    0.4 =      14.81 +j   0.10718
M1026780                 3           27.835 /_ -113.8 =    -11.234 +j   -25.468

ELEMENT = "Line.LN5591834-1"
P895111                  3           3.7133 /_   68.6 =     1.3523 +j    3.4582
------------
L2895496                 3           3.7136 /_ -111.4 =    -1.3536 +j   -3.4581

ELEMENT = "Line.LN6347196-2"
N1140819                 1           27.993 /_  -58.5 =     14.618 +j   -23.873
N1140819                 2           10.536 /_ -179.6 =    -10.536 +j -0.071044
N1140819                 3           25.502 /_   66.1 =     10.312 +j    23.324
------------
M1026700                 1           27.993 /_  121.5 =    -14.618 +j    23.873
M1026700                 2           10.536 /_    0.4 =     10.536 +j  0.070339
M1026700                 3           25.502 /_ -113.9 =    -10.312 +j   -23.324

ELEMENT = "Line.LN5532741-1"
M1089173                 3           8.9597 /_   67.6 =      3.413 +j    8.2841
------------
L2935551                 3             8.96 /_ -112.4 =    -3.4141 +j    -8.284

ELEMENT = "Line.LN5804803-1"
M1026344                 1          0.77912 /_  -54.2 =    0.45558 +j  -0.63204
------------
M1026364                 1          0.78043 /_  125.4 =   -0.45229 +j   0.63601

ELEMENT = "Line.LN6169248-1"
L2879070                 1           111.56 /_  -58.7 =     57.904 +j   -95.362
L2879070                 2           74.214 /_  179.5 =     -74.21 +j   0.71065
L2879070                 3           45.513 /_   66.0 =     18.522 +j    41.574
------------
L3216345                 1           111.57 /_  121.3 =    -57.902 +j    95.364
L3216345                 2           74.214 /_   -0.6 =     74.211 +j  -0.71329
L3216345                 3           45.514 /_ -114.0 =    -18.524 +j   -41.574

ELEMENT = "Line.LN5532786-2"
M1069428                 2           2.2445 /_  179.7 =    -2.2444 +j    0.0135
------------
N1139257                 2           2.2445 /_   -0.4 =     2.2445 +j -0.013785

ELEMENT = "Line.LN5744339-1"
L2991919                 1            16.59 /_  -54.6 =     9.6134 +j    -13.52
------------
M1026361                 1            16.59 /_  125.4 =    -9.6125 +j    13.522

ELEMENT = "Line.LN5531255-3"
N1147857                 1           16.962 /_  -58.8 =     8.7787 +j   -14.514
------------
M1009742                 1           16.962 /_  121.2 =     -8.778 +j    14.514

ELEMENT = "Line.LN5926308-2"
Q14412                   1            40.53 /_  -54.5 =     23.518 +j   -33.008
Q14412                   2           48.991 /_ -175.6 =    -48.844 +j   -3.7875
Q14412                   3           19.261 /_   66.3 =     7.7365 +j    17.639
------------
M1047325                 1            40.53 /_  125.5 =    -23.518 +j    33.009
M1047325                 2           48.991 /_    4.4 =     48.844 +j    3.7866
M1047325                 3           19.261 /_ -113.7 =    -7.7374 +j   -17.638

ELEMENT = "Line.LN5683856-3"
N1139263                 1           1.2732 /_  -58.4 =    0.66703 +j   -1.0845
------------
L3048227                 1           1.2733 /_  121.6 =   -0.66671 +j    1.0848

ELEMENT = "Line.LN6171502-1"
P827506                  1           2.0346 /_  -58.3 =     1.0685 +j   -1.7315
------------
M1069469                 1           2.0347 /_  121.7 =    -1.0684 +j    1.7316

ELEMENT = "Line.LN5593228-1"
M1027019                 2            1.397 /_  179.3 =    -1.3969 +j  0.016843
------------
L2785522                 2           1.3972 /_   -0.7 =     1.3971 +j -0.017892

ELEMENT = "Line.LN6380800-1"
L3216338                 2           1.4085 /_  179.2 =    -1.4083 +j  0.020015
------------
L2973146                 2           1.4087 /_   -0.9 =     1.4086 +j -0.021025

ELEMENT = "Line.LN6199525-2"
M3037452                 1          0.52115 /_  -54.6 =     0.3022 +j  -0.42459
------------
L2973164                 1          0.52147 /_  125.3 =   -0.30142 +j   0.42552

ELEMENT = "Line.LN5772710-2"
L3120376                 1           10.216 /_  -58.8 =     5.2979 +j   -8.7349
------------
M1026925                 1           10.216 /_  121.2 =    -5.2968 +j    8.7361

ELEMENT = "Line.LN8961760-1"
M1047612                 3           5.0498 /_   66.1 =     2.0424 +j    4.6184
------------
P828360                  3           5.0499 /_ -113.9 =    -2.0428 +j   -4.6183

ELEMENT = "Line.LN6047556-1"
M1089195                 3           1.4214 /_   66.9 =    0.55877 +j    1.3069
------------
L3141393                 3           1.4219 /_ -113.2 =   -0.56083 +j   -1.3066

ELEMENT = "Line.LN6138603-1"
M1026946                 2           2.2275 /_  179.5 =    -2.2274 +j  0.021302
------------
M1026940                 2           2.2281 /_   -0.6 =      2.228 +j -0.023482

ELEMENT = "Line.LN6108139-1"
M1047471                 2          0.85798 /_  179.2 =   -0.85791 +j  0.011526
------------
L3216349                 2          0.85807 /_   -0.8 =    0.85798 +j -0.011838

ELEMENT = "Line.LN6388581-2"
M1047401                 1           0.7801 /_  -58.3 =    0.41021 +j  -0.66353
------------
L2748132                 1          0.78033 /_  121.7 =   -0.40955 +j   0.66422

ELEMENT = "Line.LN5774460-1"
L3122820                 1          0.77855 /_  -58.7 =    0.40464 +j  -0.66514
------------
L3141398                 1          0.77882 /_  121.2 =   -0.40391 +j   0.66589

ELEMENT = "Line.LN5624387-1"
M1108360                 3           2.1869 /_   67.7 =    0.83154 +j    2.0226
------------
L3048968                 3           2.1871 /_ -112.4 =    -0.8325 +j   -2.0225

ELEMENT = "Line.LN6137087-1"
L2801950                 3           11.616 /_   66.6 =     4.6045 +j    10.664
------------
M1069224                 3           11.616 /_ -113.4 =    -4.6051 +j   -10.664

ELEMENT = "Line.LN6077809-1"
L2766746                 3           14.637 /_   65.7 =     6.0189 +j    13.342
------------
M1027073                 3           14.638 /_ -114.3 =    -6.0209 +j   -13.342

ELEMENT = "Line.LN6440079-1"
L2895496                 3           3.7136 /_   68.6 =     1.3536 +j    3.4581
------------
M1142873                 3           3.7138 /_ -111.4 =    -1.3545 +j    -3.458

ELEMENT = "Line.LN5804794-1"
M1069181                 1           11.529 /_  -54.2 =     6.7402 +j    -9.353
------------
L2973151                 1           11.529 /_  125.8 =    -6.7393 +j     9.354

ELEMENT = "Line.LN5654484-1"
L3179682                 3           1.4375 /_   67.8 =    0.54351 +j    1.3308
------------
L2786274                 3           1.4376 /_ -112.2 =     -0.544 +j   -1.3307

ELEMENT = "Line.LN5774465-1"
L3066816                 1           2.6012 /_  -58.3 =     1.3671 +j    -2.213
------------
M1026667                 1           2.6017 /_  121.7 =    -1.3656 +j    2.2145

ELEMENT = "Line.LN5473349-1"
M1108529                 1           300.76 /_  -48.2 =     200.57 +j   -224.12
M1108529                 2           299.97 /_ -169.5 =    -294.95 +j   -54.686
M1108529                 3           210.48 /_   81.4 =     31.495 +j    208.11
------------
M1108532                 1           300.76 /_  131.8 =    -200.57 +j    224.13
M1108532                 2           299.97 /_   10.5 =     294.95 +j    54.685
M1108532                 3           210.48 /_  -98.6 =    -31.495 +j   -208.11

ELEMENT = "Line.LN6169253-1"
L2766723                 1            1.296 /_  -58.7 =    0.67405 +j   -1.1069
------------
L3122822                 1           1.2963 /_  121.3 =   -0.67338 +j    1.1077

ELEMENT = "Line.LN6350536-1"
L2673312                 1          0.77517 /_  -58.8 =    0.40174 +j  -0.66294
------------
L3235247                 1          0.77592 /_  121.0 =   -0.39971 +j   0.66504

ELEMENT = "Line.LN6048523-1"
M1166391                 3           20.797 /_   71.0 =     6.7781 +j    19.662
------------
L3254873                 3           20.798 /_ -109.0 =      -6.78 +j   -19.662

ELEMENT = "Line.LN5594152-1"
L2861157                 3           23.092 /_   71.0 =     7.5086 +j    21.837
------------
P901951                  3           23.093 /_ -109.0 =    -7.5109 +j   -21.837

ELEMENT = "Line.LN5865248-1"
M1047346                 1           47.461 /_  -54.5 =     27.537 +j   -38.656
M1047346                 2           51.112 /_ -175.5 =    -50.958 +j   -3.9659
M1047346                 3           19.259 /_   66.3 =     7.7289 +j     17.64
------------
M1047345                 1           47.462 /_  125.5 =    -27.537 +j    38.657
M1047345                 2           51.112 /_    4.4 =     50.958 +j    3.9648
M1047345                 3           19.259 /_ -113.7 =      -7.73 +j    -17.64

ELEMENT = "Line.LN6046143-1"
L2989596                 2          0.55291 /_ -178.8 =   -0.55279 +j -0.011401
------------
L2822873                 2          0.55331 /_    1.0 =    0.55322 +j 0.0099048

ELEMENT = "Line.LN5803287-1"
M1108328                 3           2.8994 /_   67.8 =     1.0972 +j    2.6838
------------
L2875754                 3           2.8995 /_ -112.2 =    -1.0976 +j   -2.6837

ELEMENT = "Line.LN5589094-1"
L2786204                 3           31.679 /_   71.1 =     10.278 +j    29.966
------------
M1209819                 3            31.68 /_ -108.9 =    -10.279 +j   -29.966

ELEMENT = "Line.LN5954983-1"
P901972                  1           16.962 /_  -58.8 =     8.7779 +j   -14.514
------------
M1009726                 1           16.963 /_  121.2 =    -8.7768 +j    14.516

ELEMENT = "Line.LN5924696-2"
M1047702                 1          0.75771 /_  -58.3 =    0.39871 +j  -0.64432
------------
N1137001                 1           0.7579 /_  121.7 =   -0.39818 +j   0.64488

ELEMENT = "Line.LN6506311-4"
L2767340                 1       4.851E-005 /_   52.3 =  2.9636E-005 +j 3.8404E-005
L2767340                 2      5.2276E-005 /_  -67.0 =  2.042E-005 +j -4.8122E-005
L2767340                 3          0.85602 /_   68.1 =    0.31985 +j   0.79402
------------
M3037449                 1      3.7107E-010 /_  151.9 =  -3.2742E-010 +j 1.7462E-010
M3037449                 2      2.0987E-010 /_ -146.3 =  -1.7462E-010 +j -1.1642E-010
M3037449                 3          0.85603 /_ -111.9 =    -0.3199 +j  -0.79401

ELEMENT = "Line.LN5653493-1"
M1047457                 2           17.042 /_  179.3 =    -17.041 +j   0.20347
------------
L2710546                 2           17.042 /_   -0.7 =     17.041 +j  -0.20415

ELEMENT = "Line.LN5684836-1"
L2674027                 1           330.84 /_  -48.2 =     220.63 +j   -246.53
L2674027                 2           318.72 /_ -169.5 =    -313.38 +j    -58.11
L2674027                 3           223.63 /_   80.6 =     36.361 +j    220.66
------------
L2692633                 1           330.84 /_  131.8 =    -220.63 +j    246.53
L2692633                 2           318.72 /_   10.5 =     313.38 +j    58.108
L2692633                 3           223.63 /_  -99.4 =    -36.363 +j   -220.66

ELEMENT = "Line.LN5715016-3"
N1142108                 1          0.78007 /_  -52.7 =     0.4722 +j  -0.62092
------------
L2674051                 1          0.78041 /_  127.2 =   -0.47141 +j   0.62194

ELEMENT = "Line.LN6138614-1"
M1069135                 1           56.558 /_   -8.5 =     55.939 +j   -8.3424
M1069135                 2           57.098 /_ -130.1 =     -36.81 +j   -43.649
M1069135                 3           43.331 /_  139.2 =     -32.81 +j    28.303
------------
R18242                   1           56.557 /_  171.5 =    -55.938 +j    8.3438
R18242                   2           57.097 /_   49.9 =     36.811 +j    43.647
R18242                   3           43.329 /_  -40.8 =     32.808 +j   -28.303

ELEMENT = "Line.LN6077781-2"
M1047534                 1           260.95 /_  -58.5 =     136.41 +j   -222.46
M1047534                 2           238.25 /_  179.6 =    -238.25 +j    1.6046
M1047534                 3           195.59 /_   65.9 =     79.867 +j    178.54
------------
N1136663                 1           260.95 /_  121.5 =    -136.41 +j    222.46
N1136663                 2           238.25 /_   -0.4 =     238.25 +j    -1.608
N1136663                 3           195.59 /_ -114.1 =     -79.87 +j   -178.54

ELEMENT = "Line.LN5675121-1"
M1108508                 3          0.56707 /_   67.3 =    0.21915 +j   0.52302
------------
L3097861                 3           0.5675 /_ -112.9 =   -0.22081 +j  -0.52278

ELEMENT = "Line.LN5773046-1"
M1069560                 2           34.324 /_ -178.9 =    -34.318 +j  -0.64353
------------
M1069567                 2           34.324 /_    1.1 =     34.318 +j   0.64215

ELEMENT = "Line.LN6380809-2"
L2973153                 1           23.075 /_  -58.1 =     12.202 +j   -19.585
L2973153                 2           71.198 /_  179.6 =    -71.196 +j   0.52876
L2973153                 3           8.0443 /_   66.2 =     3.2509 +j    7.3582
------------
N1136998                 1           23.075 /_  121.9 =    -12.202 +j    19.585
N1136998                 2           71.198 /_   -0.4 =     71.196 +j  -0.52903
N1136998                 3           8.0444 /_ -113.8 =    -3.2512 +j   -7.3581

ELEMENT = "Line.LN6018326-1"
L2898515                 3           1.7042 /_   69.8 =    0.58707 +j    1.5999
------------
M1166387                 3           1.7045 /_ -110.2 =   -0.58813 +j   -1.5998

ELEMENT = "Line.LN5472356-1"
M1047442                 2          0.56765 /_  179.4 =   -0.56762 +j 0.0058208
------------
...