Distribution/8500Node/DSSfiles/8500Node_EXP_VOLTAGES.CSV
Bus, BasekV, Node1, Magnitude1, Angle1, pu1, Node2, Magnitude2, Angle2, pu2, Node3, Magnitude3, Angle3, pu3
"8500NODE", 138, 1,      83658,    0.0,      1.05, 2,      83658, -120.0,      1.05, 3,    83658.1,  120.0,      1.05
"_HVMV_SUB_LSB", 12.47, 1,    7538.22,  -33.3,     1.047, 2,    7581.08, -153.1,     1.053, 3,    7579.24,   87.0,    1.0527
"HVMV_SUB_48332", 12.47, 1,    7538.22,  -33.3,     1.047, 2,    7581.08, -153.1,     1.053, 3,    7579.24,   87.0,    1.0527
"M1009763", 12.47, 1,    7203.71,  -43.9,    1.0006, 2,     7311.5, -165.8,    1.0155, 3,    7379.41,   80.7,     1.025
"L2673322", 12.47, 2,    7311.38, -165.8,    1.0155, 0, 0, 0, 0, 0, 0, 0, 0
"M1069148", 12.47, 3,    7386.42,   81.6,     1.026, 0, 0, 0, 0, 0, 0, 0, 0
"L2673309", 12.47, 3,    7386.13,   81.6,    1.0259, 0, 0, 0, 0, 0, 0, 0, 0
"M1069588", 12.47, 2,    7345.91, -164.0,    1.0203, 0, 0, 0, 0, 0, 0, 0, 0
"L2804270", 12.47, 2,    7345.87, -164.0,    1.0203, 0, 0, 0, 0, 0, 0, 0, 0
"M3036164", 12.47, 2,    7180.47, -165.6,   0.99735, 0, 0, 0, 0, 0, 0, 0, 0
"L2935553", 12.47, 2,       7179, -165.6,   0.99714, 0, 0, 0, 0, 0, 0, 0, 0
"M1209749", 12.47, 2,    7428.73, -155.3,    1.0318, 0, 0, 0, 0, 0, 0, 0, 0
"L2748840", 12.47, 2,    7428.51, -155.3,    1.0318, 0, 0, 0, 0, 0, 0, 0, 0
"M1108264", 12.47, 2,    7449.46, -159.3,    1.0347, 0, 0, 0, 0, 0, 0, 0, 0
"M1108263", 12.47, 2,    7449.05, -159.3,    1.0347, 0, 0, 0, 0, 0, 0, 0, 0
"L3085398", 12.47, 1,    7250.34,  -43.9,    1.0071, 2,    7355.14, -165.7,    1.0216, 3,    7390.67,   80.7,    1.0265
"M1026891", 12.47, 1,    7247.03,  -43.9,    1.0066, 2,    7348.87, -165.7,    1.0207, 3,    7389.52,   80.7,    1.0264
"L3216367", 12.47, 1,    7320.73,  -43.4,    1.0168, 2,    7317.87, -165.3,    1.0164, 3,    7327.75,   80.4,    1.0178
"M1069468", 12.47, 1,    7320.06,  -43.4,    1.0167, 2,    7315.65, -165.3,    1.0161, 3,    7326.97,   80.4,    1.0177
"M1142800", 12.47, 2,     7261.4, -157.8,    1.0086, 0, 0, 0, 0, 0, 0, 0, 0
"M1142799", 12.47, 2,    7261.23, -157.8,    1.0086, 0, 0, 0, 0, 0, 0, 0, 0
"M1047592", 12.47, 1,     7369.3,  -43.6,    1.0236, 2,    7434.47, -165.2,    1.0326, 3,    7423.83,   80.8,    1.0312
"P827512", 12.47, 3,    7423.81,   80.8,    1.0311, 0, 0, 0, 0, 0, 0, 0, 0
"M1047339", 12.47, 1,    7245.21,  -39.7,    1.0063, 2,    7248.91, -160.4,    1.0069, 3,    7389.75,   81.0,    1.0264
"P895104", 12.47, 1,    7245.16,  -39.7,    1.0063, 0, 0, 0, 0, 0, 0, 0, 0
"M1026915", 12.47, 1,    7248.73,  -43.9,    1.0068, 2,     7357.4, -165.7,    1.0219, 3,    7389.67,   80.7,    1.0264
"M1026920", 12.47, 1,    7246.65,  -43.9,    1.0065, 2,    7356.41, -165.7,    1.0218, 3,    7388.68,   80.7,    1.0263
"N1138596", 12.47, 1,    7302.01,  -43.4,    1.0142, 0, 0, 0, 0, 0, 0, 0, 0
"L3254207", 12.47, 1,    7301.51,  -43.4,    1.0142, 0, 0, 0, 0, 0, 0, 0, 0
"M1069464", 12.47, 1,    7319.02,  -43.4,    1.0166, 2,    7311.67, -165.3,    1.0156, 3,    7325.62,   80.4,    1.0175
"P873787", 12.47, 2,    7311.64, -165.3,    1.0156, 0, 0, 0, 0, 0, 0, 0, 0
"N1144665", 12.47, 1,    7394.64,  -43.4,    1.0271, 2,    7447.56, -165.0,    1.0344, 3,    7416.04,   80.9,    1.0301
"M1047515", 12.47, 1,    7389.31,  -43.4,    1.0264, 2,    7443.68, -165.0,    1.0339, 3,    7411.35,   80.9,    1.0294
"N1137002", 12.47, 1,    7360.42,  -43.3,    1.0223, 0, 0, 0, 0, 0, 0, 0, 0
"M1047707", 12.47, 1,    7360.11,  -43.3,    1.0223, 0, 0, 0, 0, 0, 0, 0, 0
"L2729406", 12.47, 3,    7278.16,   82.4,    1.0109, 0, 0, 0, 0, 0, 0, 0, 0
"L2897768", 12.47, 3,    7277.63,   82.4,    1.0108, 0, 0, 0, 0, 0, 0, 0, 0
"L3649301", 12.47, 1,    7337.78,  -43.7,    1.0192, 0, 0, 0, 0, 0, 0, 0, 0
"L3649302", 12.47, 1,     7337.4,  -43.7,    1.0191, 0, 0, 0, 0, 0, 0, 0, 0
"L2970842", 12.47, 2,    7471.72, -159.2,    1.0378, 0, 0, 0, 0, 0, 0, 0, 0
"M1089113", 12.47, 2,    7470.32, -159.2,    1.0376, 0, 0, 0, 0, 0, 0, 0, 0
"M1047312", 12.47, 1,    7211.14,  -39.7,    1.0016, 2,    7213.04, -160.5,    1.0019, 3,    7380.42,   81.0,    1.0251
"P893163", 12.47, 1,    7211.07,  -39.7,    1.0016, 0, 0, 0, 0, 0, 0, 0, 0
"L2822871", 12.47, 1,    7282.67,  -43.9,    1.0115, 2,    7391.94, -165.5,    1.0267, 3,    7400.21,   80.8,    1.0279
"M1026872", 12.47, 1,    7279.98,  -43.9,    1.0112, 2,     7389.2, -165.5,    1.0263, 3,     7399.3,   80.8,    1.0277
"M1026312", 12.47, 2,    7060.73, -160.8,   0.98072, 0, 0, 0, 0, 0, 0, 0, 0
"L2973163", 12.47, 2,    7058.03, -160.8,   0.98034, 0, 0, 0, 0, 0, 0, 0, 0
"L3728038", 12.47, 1,    7326.89,  -43.5,    1.0177, 0, 0, 0, 0, 0, 0, 0, 0
"L3728039", 12.47, 1,    7326.36,  -43.5,    1.0176, 0, 0, 0, 0, 0, 0, 0, 0
"M1069567", 12.47, 2,    7358.65, -164.0,    1.0221, 0, 0, 0, 0, 0, 0, 0, 0
"M1069582", 12.47, 2,    7349.68, -164.0,    1.0209, 0, 0, 0, 0, 0, 0, 0, 0
"N1140830", 12.47, 1,    7190.89,  -43.7,    0.9988, 0, 0, 0, 0, 0, 0, 0, 0
"L3216351", 12.47, 1,     7190.8,  -43.7,   0.99878, 0, 0, 0, 0, 0, 0, 0, 0
"L2952007", 12.47, 3,    7398.68,   85.8,    1.0277, 0, 0, 0, 0, 0, 0, 0, 0
"L2861158", 12.47, 3,    7398.34,   85.8,    1.0276, 0, 0, 0, 0, 0, 0, 0, 0
"N1140827", 12.47, 1,     7196.2,  -43.7,   0.99953, 2,    7402.75, -164.9,    1.0282, 3,    7281.93,   81.0,    1.0114
"M1026726", 12.47, 1,    7196.12,  -43.7,   0.99952, 2,    7402.62, -164.9,    1.0282, 3,    7281.87,   81.0,    1.0114
"L2730106", 12.47, 1,    6804.27,  -40.0,    0.9451, 2,    7121.59, -160.8,   0.98917, 3,    7470.19,   82.7,    1.0376
"N1142099", 12.47, 1,    6801.63,  -40.0,   0.94473, 2,     7120.4, -160.9,   0.98901, 3,    7470.12,   82.6,    1.0376
"M1026658", 12.47, 1,    7189.15,  -43.7,   0.99855, 2,    7404.35, -164.9,    1.0284, 3,    7267.51,   80.9,    1.0094
"L3172805", 12.47, 1,    7188.97,  -43.7,   0.99853, 0, 0, 0, 0, 0, 0, 0, 0
"P895112", 12.47, 1,    7104.46,  -37.7,   0.98679, 0, 0, 0, 0, 0, 0, 0, 0
"L3048962", 12.47, 1,    7104.39,  -37.7,   0.98678, 0, 0, 0, 0, 0, 0, 0, 0
"L2991914", 12.47, 1,    7341.99,  -43.4,    1.0198, 2,    7416.86, -165.0,    1.0302, 3,    7372.66,   80.9,     1.024
"M1047503", 12.47, 1,    7338.31,  -43.4,    1.0193, 2,    7416.57, -165.0,    1.0301, 3,    7370.34,   80.9,    1.0237
"M1047751", 12.47, 1,    7317.11,  -43.1,    1.0163, 0, 0, 0, 0, 0, 0, 0, 0
"L2973154", 12.47, 1,    7317.07,  -43.1,    1.0163, 0, 0, 0, 0, 0, 0, 0, 0
"L3010565", 12.47, 3,    7383.24,   81.6,    1.0255, 0, 0, 0, 0, 0, 0, 0, 0
"L2897775", 12.47, 3,    7382.97,   81.6,    1.0255, 0, 0, 0, 0, 0, 0, 0, 0
"M1125955", 12.47, 3,    7473.48,   83.2,     1.038, 0, 0, 0, 0, 0, 0, 0, 0
"M1125957", 12.47, 3,    7473.45,   83.2,     1.038, 0, 0, 0, 0, 0, 0, 0, 0
"M1069640", 12.47, 2,     7322.7, -164.1,    1.0171, 0, 0, 0, 0, 0, 0, 0, 0
"L2804269", 12.47, 2,    7321.96, -164.1,     1.017, 0, 0, 0, 0, 0, 0, 0, 0
"M1026702", 12.47, 1,    7220.05,  -43.6,    1.0028, 2,    7406.48, -164.9,    1.0287, 3,    7300.75,   80.9,    1.0141
"N1139551", 12.47, 1,    7208.75,  -43.7,    1.0013, 2,    7405.92, -164.9,    1.0287, 3,    7294.26,   81.0,    1.0132
"N1136355", 12.47, 2,    7398.69, -163.9,    1.0277, 0, 0, 0, 0, 0, 0, 0, 0
"L2783231", 12.47, 2,    7391.47, -163.9,    1.0267, 0, 0, 0, 0, 0, 0, 0, 0
"L2748143", 12.47, 1,    7197.23,  -42.1,   0.99968, 0, 0, 0, 0, 0, 0, 0, 0
"L3251854", 12.47, 1,    7197.12,  -42.1,   0.99966, 0, 0, 0, 0, 0, 0, 0, 0
"M1069610", 12.47, 2,    7333.56, -164.0,    1.0186, 0, 0, 0, 0, 0, 0, 0, 0
"M1069600", 12.47, 2,    7333.45, -164.0,    1.0186, 0, 0, 0, 0, 0, 0, 0, 0
"M1069424", 12.47, 1,    7310.96,  -43.4,    1.0155, 2,    7281.29, -165.4,    1.0114, 3,    7315.19,   80.3,    1.0161
"L2935549", 12.47, 1,    7309.87,  -43.4,    1.0153, 2,    7277.14, -165.5,    1.0108, 3,    7313.96,   80.3,    1.0159
"P895089", 12.47, 3,    7518.25,   81.7,    1.0443, 0, 0, 0, 0, 0, 0, 0, 0
"L3235242", 12.47, 3,    7518.02,   81.7,    1.0442, 0, 0, 0, 0, 0, 0, 0, 0
"M1026795", 12.47, 1,    7302.75,  -43.5,    1.0143, 2,    7413.96, -165.0,    1.0298, 3,    7348.19,   80.9,    1.0206
"N1140522", 12.47, 3,    7348.16,   80.9,    1.0206, 0, 0, 0, 0, 0, 0, 0, 0
"L3030199", 12.47, 1,     7149.8,  -37.6,   0.99309, 2,    7262.87, -157.8,    1.0088, 3,    7458.44,   83.2,     1.036
"M1125934", 12.47, 1,    7149.81,  -37.6,   0.99309, 2,    7261.96, -157.9,    1.0087, 3,    7457.75,   83.2,    1.0359
"M1069189", 12.47, 1,    7402.52,  -39.1,    1.0282, 2,    7421.55, -159.5,    1.0308, 3,    7401.96,   81.6,    1.0281
"L2860487", 12.47, 3,    7401.82,   81.6,    1.0281, 0, 0, 0, 0, 0, 0, 0, 0
"221-312488", 12.47, 1,    6841.58,  -39.4,   0.95028, 2,     7119.4, -160.3,   0.98887, 3,    7462.54,   82.9,    1.0365
"M1089183", 12.47, 1,    6841.57,  -39.4,   0.95028, 2,    7119.39, -160.3,   0.98886, 3,    7462.53,   82.9,    1.0365
"M1108464", 12.47, 2,       7117, -160.3,   0.98853, 0, 0, 0, 0, 0, 0, 0, 0
"L3102286", 12.47, 2,     7116.5, -160.3,   0.98846, 0, 0, 0, 0, 0, 0, 0, 0
"F739845", 12.47, 1,    7194.06,  -39.7,   0.99924, 2,    7186.45, -160.5,   0.99818, 3,    7374.91,   81.0,    1.0244
"293471", 12.47, 1,       7194,  -39.7,   0.99923, 2,    7186.38, -160.5,   0.99817, 3,    7374.84,   81.0,    1.0243
"P827499", 12.47, 1,     7308.7,  -43.4,    1.0152, 0, 0, 0, 0, 0, 0, 0, 0
"N1139254", 12.47, 1,    7308.69,  -43.4,    1.0152, 0, 0, 0, 0, 0, 0, 0, 0
"M1026657", 12.47, 1,    7185.64,  -43.7,   0.99807, 0, 0, 0, 0, 0, 0, 0, 0
"M1026656", 12.47, 1,    7185.41,  -43.7,   0.99803, 0, 0, 0, 0, 0, 0, 0, 0
"M1108299", 12.47, 2,    7231.79, -158.2,    1.0045, 0, 0, 0, 0, 0, 0, 0, 0
"M1108300", 12.47, 2,    7231.77, -158.2,    1.0045, 0, 0, 0, 0, 0, 0, 0, 0
"L3198355", 12.47, 2,    7231.38, -158.2,    1.0044, 0, 0, 0, 0, 0, 0, 0, 0
"L2805037", 12.47, 2,    7231.39, -158.2,    1.0044, 0, 0, 0, 0, 0, 0, 0, 0
"N1137994", 12.47, 3,    7332.74,   80.5,    1.0185, 0, 0, 0, 0, 0, 0, 0, 0
"M1069484", 12.47, 3,    7331.26,   80.5,    1.0183, 0, 0, 0, 0, 0, 0, 0, 0
"L2860504", 12.47, 1,    7191.93,  -43.7,   0.99894, 0, 0, 0, 0, 0, 0, 0, 0
"L2860493", 12.47, 1,    7191.22,  -43.7,   0.99884, 0, 0, 0, 0, 0, 0, 0, 0
"M1026783", 12.47, 1,    7291.83,  -43.5,    1.0128, 2,    7413.09, -165.0,    1.0297, 3,    7342.17,   80.9,    1.0198
"M1026780", 12.47, 1,    7290.09,  -43.5,    1.0126, 2,    7412.93, -165.0,    1.0296, 3,     7341.2,   80.9,    1.0197
"P895111", 12.47, 3,    7477.28,   83.5,    1.0386, 0, 0, 0, 0, 0, 0, 0, 0
"L2895496", 12.47, 3,    7476.93,   83.5,    1.0385, 0, 0, 0, 0, 0, 0, 0, 0
"N1140819", 12.47, 1,    7200.57,  -43.7,    1.0001, 2,    7403.78, -164.9,    1.0284, 3,    7286.42,   81.0,    1.0121
"M1026700", 12.47, 1,     7199.4,  -43.7,   0.99998, 2,    7403.41, -164.9,    1.0283, 3,    7285.15,   81.0,    1.0119
"M1089173", 12.47, 3,    7280.94,   82.4,    1.0113, 0, 0, 0, 0, 0, 0, 0, 0
"L2935551", 12.47, 3,    7279.96,   82.4,    1.0112, 0, 0, 0, 0, 0, 0, 0, 0
"M1026344", 12.47, 1,    7148.06,  -39.7,   0.99285, 0, 0, 0, 0, 0, 0, 0, 0
"M1026364", 12.47, 1,    7147.76,  -39.7,   0.99281, 0, 0, 0, 0, 0, 0, 0, 0
"L2879070", 12.47, 1,    7357.33,  -43.6,    1.0219, 2,    7430.36, -165.2,    1.0321, 3,    7420.22,   80.8,    1.0306
"L3216345", 12.47, 1,    7349.22,  -43.6,    1.0208, 2,    7427.81, -165.3,    1.0317, 3,    7418.22,   80.8,    1.0304
"M1069428", 12.47, 1,    7312.08,  -43.4,    1.0156, 2,     7284.8, -165.4,    1.0118, 3,    7316.29,   80.3,    1.0162
"N1139257", 12.47, 2,    7284.75, -165.4,    1.0118, 0, 0, 0, 0, 0, 0, 0, 0
"L2991919", 12.47, 1,    7144.01,  -39.7,   0.99228, 0, 0, 0, 0, 0, 0, 0, 0
"M1026361", 12.47, 1,    7141.45,  -39.7,   0.99193, 0, 0, 0, 0, 0, 0, 0, 0
"N1147857", 12.47, 1,    7203.66,  -43.9,    1.0006, 0, 0, 0, 0, 0, 0, 0, 0
"M1009742", 12.47, 1,    7201.94,  -43.9,    1.0003, 0, 0, 0, 0, 0, 0, 0, 0
"Q14412", 12.47, 1,    7236.01,  -39.7,    1.0051, 2,    7239.48, -160.4,    1.0055, 3,     7387.4,   81.0,    1.0261
"M1047325", 12.47, 1,    7233.39,  -39.7,    1.0047, 2,    7236.85, -160.4,    1.0052, 3,    7386.71,   81.0,     1.026
"N1139263", 12.47, 1,    7319.98,  -43.4,    1.0167, 0, 0, 0, 0, 0, 0, 0, 0
"L3048227", 12.47, 1,    7319.92,  -43.4,    1.0167, 0, 0, 0, 0, 0, 0, 0, 0
"P827506", 12.47, 1,    7320.03,  -43.4,    1.0167, 0, 0, 0, 0, 0, 0, 0, 0
"M1069469", 12.47, 1,       7320,  -43.4,    1.0167, 0, 0, 0, 0, 0, 0, 0, 0
"M1027019", 12.47, 2,    7320.12, -165.8,    1.0167, 0, 0, 0, 0, 0, 0, 0, 0
"L2785522", 12.47, 2,    7320.01, -165.8,    1.0167, 0, 0, 0, 0, 0, 0, 0, 0
"L3216338", 12.47, 2,    7260.89, -165.9,    1.0085, 0, 0, 0, 0, 0, 0, 0, 0
"L2973146", 12.47, 2,    7260.78, -165.9,    1.0085, 0, 0, 0, 0, 0, 0, 0, 0
"M3037452", 12.47, 1,    7133.97,  -39.7,   0.99089, 0, 0, 0, 0, 0, 0, 0, 0
"L2973164", 12.47, 1,     7133.9,  -39.7,   0.99088, 0, 0, 0, 0, 0, 0, 0, 0
"L3120376", 12.47, 1,    7294.28,  -43.8,    1.0132, 0, 0, 0, 0, 0, 0, 0, 0
"M1026925", 12.47, 1,    7292.58,  -43.8,    1.0129, 0, 0, 0, 0, 0, 0, 0, 0
"M1047612", 12.47, 3,    7431.65,   80.8,    1.0322, 0, 0, 0, 0, 0, 0, 0, 0
"P828360", 12.47, 3,    7431.62,   80.8,    1.0322, 0, 0, 0, 0, 0, 0, 0, 0
"M1089195", 12.47, 3,    7517.76,   81.7,    1.0442, 0, 0, 0, 0, 0, 0, 0, 0
"L3141393", 12.47, 3,    7517.55,   81.7,    1.0442, 0, 0, 0, 0, 0, 0, 0, 0
"M1026946", 12.47, 2,    7336.34, -165.8,     1.019, 0, 0, 0, 0, 0, 0, 0, 0
"M1026940", 12.47, 2,    7335.81, -165.8,    1.0189, 0, 0, 0, 0, 0, 0, 0, 0
"M1047471", 12.47, 2,    7140.46, -165.8,   0.99179, 0, 0, 0, 0, 0, 0, 0, 0
"L3216349", 12.47, 2,    7140.44, -165.8,   0.99179, 0, 0, 0, 0, 0, 0, 0, 0
"M1047401", 12.47, 1,    7135.46,  -43.8,    0.9911, 0, 0, 0, 0, 0, 0, 0, 0
"L2748132", 12.47, 1,    7135.38,  -43.8,   0.99109, 0, 0, 0, 0, 0, 0, 0, 0
"L3122820", 12.47, 1,     7164.9,  -43.8,   0.99519, 0, 0, 0, 0, 0, 0, 0, 0
"L3141398", 12.47, 1,    7164.84,  -43.8,   0.99518, 0, 0, 0, 0, 0, 0, 0, 0
"M1108360", 12.47, 3,    7354.17,   82.6,    1.0215, 0, 0, 0, 0, 0, 0, 0, 0
"L3048968", 12.47, 3,    7353.95,   82.6,    1.0214, 0, 0, 0, 0, 0, 0, 0, 0
"L2801950", 12.47, 3,    7363.59,   81.5,    1.0228, 0, 0, 0, 0, 0, 0, 0, 0
"M1069224", 12.47, 3,    7362.92,   81.5,    1.0227, 0, 0, 0, 0, 0, 0, 0, 0
"L2766746", 12.47, 3,    7311.98,   80.6,    1.0156, 0, 0, 0, 0, 0, 0, 0, 0
"M1027073", 12.47, 3,    7309.86,   80.6,    1.0153, 0, 0, 0, 0, 0, 0, 0, 0
"M1142873", 12.47, 3,    7476.69,   83.5,    1.0385, 0, 0, 0, 0, 0, 0, 0, 0
"M1069181", 12.47, 1,    7361.61,  -39.3,    1.0225, 0, 0, 0, 0, 0, 0, 0, 0
"L2973151", 12.47, 1,    7359.99,  -39.3,    1.0223, 0, 0, 0, 0, 0, 0, 0, 0
"L3179682", 12.47, 3,    7435.94,   82.7,    1.0328, 0, 0, 0, 0, 0, 0, 0, 0
"L2786274", 12.47, 3,    7435.87,   82.7,    1.0328, 0, 0, 0, 0, 0, 0, 0, 0
"L3066816", 12.47, 1,     7189.9,  -43.7,   0.99866, 0, 0, 0, 0, 0, 0, 0, 0
"M1026667", 12.47, 1,    7189.48,  -43.7,    0.9986, 0, 0, 0, 0, 0, 0, 0, 0
"M1108529", 12.47, 1,    7393.22,  -40.7,    1.0269, 2,    7522.27, -161.7,    1.0448, 3,    7515.03,   82.3,    1.0438
"M1108532", 12.47, 1,     7390.8,  -40.7,    1.0266, 2,    7520.84, -161.7,    1.0446, 3,    7515.08,   82.3,    1.0438
"L2766723", 12.47, 1,       7191,  -43.7,   0.99881, 0, 0, 0, 0, 0, 0, 0, 0
"L3122822", 12.47, 1,    7190.86,  -43.7,   0.99879, 0, 0, 0, 0, 0, 0, 0, 0
"L2673312", 12.47, 1,    7191.76,  -44.0,   0.99892, 0, 0, 0, 0, 0, 0, 0, 0
"L3235247", 12.47, 1,    7191.59,  -44.0,   0.99889, 0, 0, 0, 0, 0, 0, 0, 0
"M1166391", 12.47, 3,     7413.4,   85.9,    1.0297, 0, 0, 0, 0, 0, 0, 0, 0
"L3254873", 12.47, 3,    7409.41,   85.8,    1.0291, 0, 0, 0, 0, 0, 0, 0, 0
"L2861157", 12.47, 3,    7452.49,   85.9,    1.0351, 0, 0, 0, 0, 0, 0, 0, 0
"P901951", 12.47, 3,    7448.81,   85.9,    1.0346, 0, 0, 0, 0, 0, 0, 0, 0
"M1047346", 12.47, 1,    7259.48,  -39.7,    1.0083, 2,    7261.91, -160.4,    1.0087, 3,    7393.03,   81.0,    1.0269
"M1047345", 12.47, 1,    7255.68,  -39.7,    1.0078, 2,    7258.66, -160.4,    1.0082, 3,    7392.18,   81.0,    1.0268
"L2989596", 12.47, 2,    7367.84, -164.0,    1.0234, 0, 0, 0, 0, 0, 0, 0, 0
"L2822873", 12.47, 2,    7367.75, -164.0,    1.0234, 0, 0, 0, 0, 0, 0, 0, 0
"M1108328", 12.47, 3,    7412.37,   82.7,    1.0296, 0, 0, 0, 0, 0, 0, 0, 0
"L2875754", 12.47, 3,    7412.29,   82.7,    1.0295, 0, 0, 0, 0, 0, 0, 0, 0
"L2786204", 12.47, 3,    7514.48,   86.1,    1.0437, 0, 0, 0, 0, 0, 0, 0, 0
"M1209819", 12.47, 3,    7510.24,   86.1,    1.0432, 0, 0, 0, 0, 0, 0, 0, 0
"P901972", 12.47, 1,    7201.57,  -43.9,    1.0003, 0, 0, 0, 0, 0, 0, 0, 0
"M1009726", 12.47, 1,     7198.8,  -43.9,    0.9999, 0, 0, 0, 0, 0, 0, 0, 0
"M1047702", 12.47, 1,    7360.48,  -43.3,    1.0224, 0, 0, 0, 0, 0, 0, 0, 0
"N1137001", 12.47, 1,    7360.44,  -43.3,    1.0223, 0, 0, 0, 0, 0, 0, 0, 0
"L2767340", 12.47, 1,    6900.86,  -39.2,   0.95851, 2,    7163.76, -159.9,   0.99503, 3,    7472.03,   83.0,    1.0378
"M3037449", 12.47, 1,    6900.86,  -39.2,   0.95851, 2,    7163.76, -159.9,   0.99503, 3,    7472.02,   83.0,    1.0378
"M1047457", 12.47, 2,    7148.34, -165.8,   0.99289, 0, 0, 0, 0, 0, 0, 0, 0
"L2710546", 12.47, 2,    7147.45, -165.8,   0.99276, 0, 0, 0, 0, 0, 0, 0, 0
"L2674027", 12.47, 1,    6738.89,  -40.5,   0.93601, 2,    7090.18, -161.5,   0.98481, 3,    7469.01,   82.4,    1.0374
"L2692633", 12.47, 1,    6731.58,  -40.6,     0.935, 2,    7086.32, -161.6,   0.98427, 3,    7468.91,   82.4,    1.0374
"N1142108", 12.47, 1,    7150.55,  -37.8,   0.99319, 0, 0, 0, 0, 0, 0, 0, 0
"L2674051", 12.47, 1,    7150.47,  -37.8,   0.99318, 0, 0, 0, 0, 0, 0, 0, 0
"M1069135", 12.47, 1,    7284.19,  -39.7,    1.0118, 2,    7283.02, -160.3,    1.0116, 3,    7399.77,   81.0,    1.0278
"R18242", 12.47, 1,    7279.14,  -39.7,    1.0111, 2,    7279.02, -160.4,     1.011, 3,    7399.21,   81.0,    1.0277
"M1047534", 12.47, 1,    7477.91,  -43.2,    1.0387, 2,    7510.14, -164.8,    1.0431, 3,     7473.2,   81.0,     1.038
"N1136663", 12.47, 1,     7456.3,  -43.3,    1.0357, 2,    7493.72, -164.9,    1.0409, 3,    7461.42,   80.9,    1.0364
"M1108508", 12.47, 3,    7515.42,   82.1,    1.0439, 0, 0, 0, 0, 0, 0, 0, 0
"L3097861", 12.47, 3,    7515.35,   82.1,    1.0439, 0, 0, 0, 0, 0, 0, 0, 0
"M1069560", 12.47, 2,    7363.84, -164.0,    1.0228, 0, 0, 0, 0, 0, 0, 0, 0
"L2973153", 12.47, 1,    7371.29,  -43.4,    1.0239, 2,    7383.91, -165.2,    1.0256, 3,    7433.74,   80.8,    1.0325
"N1136998", 12.47, 1,    7370.75,  -43.4,    1.0238, 2,    7382.64, -165.2,    1.0254, 3,     7433.9,   80.8,    1.0325
"L2898515", 12.47, 3,    7504.42,   84.7,    1.0423, 0, 0, 0, 0, 0, 0, 0, 0
"M1166387", 12.47, 3,    7504.23,   84.7,    1.0423, 0, 0, 0, 0, 0, 0, 0, 0
"M1047442", 12.47, 2,    7178.36, -165.7,   0.99706, 0, 0, 0, 0, 0, 0, 0, 0
"L3235250", 12.47, 2,     7178.3, -165.7,   0.99705, 0, 0, 0, 0, 0, 0, 0, 0
"M1142871", 12.47, 1,    7074.43,  -37.9,   0.98262, 2,    7252.28, -158.3,    1.0073, 3,    7477.62,   83.5,    1.0386
"M1142874", 12.47, 1,    7069.12,  -37.9,   0.98188, 2,    7249.41, -158.3,    1.0069, 3,    7477.31,   83.5,    1.0386
"L2955081", 12.47, 1,    7151.01,  -37.9,   0.99326, 2,    7238.81, -158.1,    1.0055, 3,    7438.45,   82.8,    1.0332
"M1108315", 12.47, 1,    7151.34,  -37.9,    0.9933, 2,    7236.21, -158.1,    1.0051, 3,    7436.16,   82.7,    1.0329
"L2973162", 12.47, 1,    7148.14,  -39.6,   0.99286, 2,     7118.1, -160.7,   0.98869, 3,    7382.01,   81.1,    1.0253
"M1026333", 12.47, 1,    7147.54,  -39.6,   0.99277, 2,    7114.36, -160.7,   0.98817, 3,    7382.89,   81.1,    1.0255
"M1009832", 12.47, 2,    7269.29, -165.9,    1.0097, 0, 0, 0, 0, 0, 0, 0, 0
"L2860479", 12.47, 2,    7269.25, -165.9,    1.0097, 0, 0, 0, 0, 0, 0, 0, 0
"M1026854", 12.47, 1,    7309.43,  -43.8,    1.0153, 2,    7411.87, -165.4,    1.0295, 3,    7407.88,   80.8,    1.0289
"P901894", 12.47, 1,    7309.22,  -43.8,    1.0152, 0, 0, 0, 0, 0, 0, 0, 0
"M1026485", 12.47, 2,    7217.91, -160.5,    1.0025, 0, 0, 0, 0, 0, 0, 0, 0
"M1026492", 12.47, 2,    7217.67, -160.5,    1.0025, 0, 0, 0, 0, 0, 0, 0, 0
"D6413567-3_INT", 12.47, 1,    7383.59,  -39.2,    1.0256, 2,    7405.62, -159.6,    1.0286, 3,    7400.31,   81.5,    1.0279
"E182724", 12.47, 1,    7383.53,  -39.2,    1.0256, 2,    7405.56, -159.6,    1.0286, 3,    7400.32,   81.5,    1.0279
"N1139541", 12.47, 1,    7385.52,  -39.2,    1.0258, 2,    7407.25, -159.5,    1.0288, 3,    7400.47,   81.5,    1.0279
"M4122658", 12.47, 1,    6825.62,  -39.8,   0.94806, 2,    7131.23, -160.6,   0.99051, 3,    7470.95,   82.7,    1.0377
"L2933135", 12.47, 1,    6825.42,  -39.8,   0.94803, 2,    7131.14, -160.6,    0.9905, 3,    7470.94,   82.7,    1.0377
"L2729414", 12.47, 1,    7219.99,  -43.6,    1.0028, 2,     7406.4, -164.9,    1.0287, 3,    7300.67,   80.9,     1.014
"L2729430", 12.47, 2,    7306.21, -165.8,    1.0148, 0, 0, 0, 0, 0, 0, 0, 0
"L2766742", 12.47, 2,    7299.25, -165.8,    1.0138, 0, 0, 0, 0, 0, 0, 0, 0
"M1026972", 12.47, 2,    7182.42, -165.6,   0.99762, 0, 0, 0, 0, 0, 0, 0, 0
"L2860483", 12.47, 2,    7182.19, -165.6,   0.99759, 0, 0, 0, 0, 0, 0, 0, 0
"L2860490", 12.47, 1,    7269.12,  -39.7,    1.0097, 2,    7270.47, -160.4,    1.0098, 3,    7396.02,   81.0,    1.0273
"L3104134", 12.47, 1,    7263.51,  -39.7,    1.0089, 2,    7265.45, -160.4,    1.0092, 3,     7394.2,   81.0,     1.027
"M1089144", 12.47, 1,    7011.85,  -38.5,   0.97393, 0, 0, 0, 0, 0, 0, 0, 0
"P827522", 12.47, 1,    7011.83,  -38.5,   0.97393, 0, 0, 0, 0, 0, 0, 0, 0
"M1089118", 12.47, 1,    7443.68,  -38.9,    1.0339, 2,    7464.15, -159.2,    1.0368, 3,     7430.8,   81.7,    1.0321
"L3048208", 12.47, 1,    7443.62,  -38.9,    1.0339, 0, 0, 0, 0, 0, 0, 0, 0
"M1108505", 12.47, 1,    6758.36,  -40.3,   0.93872, 2,    7100.63, -161.3,   0.98626, 3,    7469.11,   82.5,    1.0374
"L2955047", 12.47, 1,    6752.41,  -40.4,   0.93789, 2,    7097.44, -161.3,   0.98582, 3,    7469.09,   82.5,    1.0374
"M1089148", 12.47, 1,    7008.91,  -38.5,   0.97352, 0, 0, 0, 0, 0, 0, 0, 0
"L2766721", 12.47, 1,     7008.8,  -38.5,    0.9735, 0, 0, 0, 0, 0, 0, 0, 0
"M1026745", 12.47, 2,    7136.75, -165.8,   0.99128, 0, 0, 0, 0, 0, 0, 0, 0
"L3029183", 12.47, 2,    7136.65, -165.8,   0.99126, 0, 0, 0, 0, 0, 0, 0, 0
"L2710512", 12.47, 2,    7153.68, -165.7,   0.99363, 0, 0, 0, 0, 0, 0, 0, 0
"M1047828", 12.47, 2,    7149.28, -165.7,   0.99302, 0, 0, 0, 0, 0, 0, 0, 0
"M1047342", 12.47, 1,     7255.1,  -39.7,    1.0077, 0, 0, 0, 0, 0, 0, 0, 0
"L3197645", 12.47, 1,    7254.97,  -39.7,    1.0077, 0, 0, 0, 0, 0, 0, 0, 0
"M1069192", 12.47, 1,    7366.37,  -39.3,    1.0232, 0, 0, 0, 0, 0, 0, 0, 0
"L3235253", 12.47, 1,    7366.24,  -39.3,    1.0232, 0, 0, 0, 0, 0, 0, 0, 0
"L3214071", 12.47, 1,    6992.59,  -38.5,   0.97125, 2,    7208.84, -159.0,    1.0013, 3,    7473.95,   83.2,    1.0381
"M1125952", 12.47, 1,    6985.11,  -38.5,   0.97021, 2,    7204.91, -159.1,    1.0007, 3,    7473.67,   83.2,    1.0381
"M1027101", 12.47, 2,    7150.24, -165.7,   0.99315, 0, 0, 0, 0, 0, 0, 0, 0
"L2860480", 12.47, 2,    7149.93, -165.7,   0.99311, 0, 0, 0, 0, 0, 0, 0, 0
"L2710517", 12.47, 1,    7166.91,  -43.8,   0.99547, 0, 0, 0, 0, 0, 0, 0, 0
"M1026646", 12.47, 1,    7165.46,  -43.8,   0.99526, 0, 0, 0, 0, 0, 0, 0, 0
"M1069662", 12.47, 2,    7321.37, -164.1,    1.0169, 0, 0, 0, 0, 0, 0, 0, 0
"L2935547", 12.47, 2,    7321.31, -164.1,    1.0169, 0, 0, 0, 0, 0, 0, 0, 0
"M1026931", 12.47, 1,    7287.76,  -43.8,    1.0123, 0, 0, 0, 0, 0, 0, 0, 0
"L3216336", 12.47, 1,    7287.25,  -43.8,    1.0122, 0, 0, 0, 0, 0, 0, 0, 0
"L3142049", 12.47, 1,    6790.81,  -40.1,   0.94323, 2,    7115.47, -161.0,   0.98832, 3,    7469.82,   82.6,    1.0375
"M1108493", 12.47, 1,    6780.94,  -40.1,   0.94185, 2,    7110.93, -161.1,   0.98769, 3,    7469.59,   82.6,    1.0375
"M1069169", 12.47, 1,    7371.51,  -39.2,    1.0239, 2,    7395.42, -159.6,    1.0272, 3,    7399.35,   81.5,    1.0278
"L3010556", 12.47, 1,    7364.61,  -39.3,    1.0229, 2,     7386.8, -159.7,     1.026, 3,    7398.84,   81.4,    1.0277
"L2991933", 12.47, 3,    7379.59,   80.7,     1.025, 0, 0, 0, 0, 0, 0, 0, 0
"L3122837", 12.47, 3,    7378.92,   80.7,    1.0249, 0, 0, 0, 0, 0, 0, 0, 0
"L2691936", 12.47, 1,    7286.71,  -43.8,    1.0121, 0, 0, 0, 0, 0, 0, 0, 0
"L2897772", 12.47, 1,    7205.05,  -39.7,    1.0008, 0, 0, 0, 0, 0, 0, 0, 0
"L3101814", 12.47, 1,    7205.05,  -39.7,    1.0008, 0, 0, 0, 0, 0, 0, 0, 0
"L2766732", 12.47, 2,    7218.12, -160.5,    1.0026, 0, 0, 0, 0, 0, 0, 0, 0
"L2989564", 12.47, 2,    7321.68, -164.1,     1.017, 0, 0, 0, 0, 0, 0, 0, 0
"M1126016", 12.47, 1,    6743.06,  -40.4,   0.93659, 0, 0, 0, 0, 0, 0, 0, 0
"L3120534", 12.47, 1,    6742.69,  -40.4,   0.93654, 0, 0, 0, 0, 0, 0, 0, 0
"M1026330", 12.47, 1,     7146.6,  -39.6,   0.99264, 2,    7107.06, -160.7,   0.98715, 3,     7384.7,   81.1,    1.0257
"L2766726", 12.47, 2,    7107.02, -160.7,   0.98715, 0, 0, 0, 0, 0, 0, 0, 0
"P901912", 12.47, 2,    7405.64, -165.0,    1.0286, 0, 0, 0, 0, 0, 0, 0, 0
"L3195365", 12.47, 2,    7405.64, -165.0,    1.0286, 0, 0, 0, 0, 0, 0, 0, 0
"M1108381", 12.47, 1,    6844.96,  -39.4,   0.95075, 2,    7122.82, -160.3,   0.98934, 3,    7465.25,   82.9,    1.0369
"L3254237", 12.47, 1,    6843.74,  -39.4,   0.95058, 2,    7122.03, -160.3,   0.98923, 3,    7464.59,   82.9,    1.0368
"L2804262", 12.47, 1,    7306.72,  -43.8,    1.0149, 0, 0, 0, 0, 0, 0, 0, 0
"L2841639", 12.47, 1,    7304.32,  -43.8,    1.0146, 0, 0, 0, 0, 0, 0, 0, 0
"N1230123", 12.47, 2,     7129.4, -160.3,   0.99025, 0, 0, 0, 0, 0, 0, 0, 0
"L2708744", 12.47, 2,     7127.8, -160.3,   0.99003, 0, 0, 0, 0, 0, 0, 0, 0
"M1069519", 12.47, 1,    7201.01,  -42.1,    1.0002, 2,    7408.17, -163.8,     1.029, 3,    7526.73,   81.5,    1.0454
"P901927", 12.47, 2,    7408.15, -163.8,     1.029, 0, 0, 0, 0, 0, 0, 0, 0
"L2897790", 12.47, 3,    7530.96,   81.5,     1.046, 0, 0, 0, 0, 0, 0, 0, 0
"L2935566", 12.47, 3,    7530.83,   81.5,     1.046, 0, 0, 0, 0, 0, 0, 0, 0
"L3216337", 12.47, 1,    7287.71,  -43.8,    1.0122, 0, 0, 0, 0, 0, 0, 0, 0
"P901931", 12.47, 3,     7531.2,   81.5,    1.0461, 0, 0, 0, 0, 0, 0, 0, 0
"M1069548", 12.47, 3,    7531.18,   81.5,    1.0461, 0, 0, 0, 0, 0, 0, 0, 0
"M1010013", 12.47, 1,    7115.01,  -44.2,   0.98826, 0, 0, 0, 0, 0, 0, 0, 0
"L3120503", 12.47, 1,    7114.96,  -44.2,   0.98825, 0, 0, 0, 0, 0, 0, 0, 0
"M1089145", 12.47, 1,    7011.65,  -38.5,    0.9739, 2,    7087.45, -158.8,   0.98443, 3,     7327.2,   82.2,    1.0177
"L3215385", 12.47, 1,    7011.57,  -38.5,   0.97389, 2,    7087.33, -158.8,   0.98441, 3,    7327.13,   82.2,    1.0177
"M1026852", 12.47, 1,    7301.42,  -43.8,    1.0141, 2,    7406.54, -165.4,    1.0287, 3,    7405.58,   80.8,    1.0286
"M1069420", 12.47, 1,    7308.72,  -43.4,    1.0152, 2,    7272.81, -165.5,    1.0102, 3,    7312.53,   80.2,    1.0157
"L3157708", 12.47, 3,    7391.96,   80.9,    1.0267, 0, 0, 0, 0, 0, 0, 0, 0
"N1137991", 12.47, 3,    7391.95,   80.9,    1.0267, 0, 0, 0, 0, 0, 0, 0, 0
"M1108413", 12.47, 1,    6849.77,  -39.4,   0.95142, 0, 0, 0, 0, 0, 0, 0, 0
"M1108460", 12.47, 1,    6847.31,  -39.4,   0.95107, 0, 0, 0, 0, 0, 0, 0, 0
"P827532", 12.47, 1,    7233.36,  -39.7,    1.0047, 0, 0, 0, 0, 0, 0, 0, 0
"M1047326", 12.47, 1,    7233.34,  -39.7,    1.0047, 0, 0, 0, 0, 0, 0, 0, 0
"E182732", 12.47, 1,    7257.76,  -43.6,    1.0081, 2,    7409.73, -165.0,    1.0292, 3,    7322.92,   80.9,    1.0171
"M1026760", 12.47, 1,    7256.92,  -43.6,     1.008, 2,    7409.64, -165.0,    1.0292, 3,    7322.43,   80.9,    1.0171
"L3048205", 12.47, 3,    7343.73,   82.5,      1.02, 0, 0, 0, 0, 0, 0, 0, 0
"M1108361", 12.47, 3,    7330.71,   82.5,    1.0182, 0, 0, 0, 0, 0, 0, 0, 0
"M3036169", 12.47, 1,    7170.11,  -43.7,   0.99591, 0, 0, 0, 0, 0, 0, 0, 0
"L2673317", 12.47, 1,    7170.03,  -43.7,    0.9959, 0, 0, 0, 0, 0, 0, 0, 0
"L3178981", 12.47, 2,    7276.29, -160.3,    1.0107, 0, 0, 0, 0, 0, 0, 0, 0
"M1047368", 12.47, 2,    7264.45, -160.4,     1.009, 0, 0, 0, 0, 0, 0, 0, 0
"N1136354", 12.47, 1,    7199.51,  -42.1,   0.99999, 2,    7404.63, -163.9,    1.0285, 3,    7529.38,   81.5,    1.0458
"L2879794", 12.47, 1,    7145.53,  -37.6,    0.9925, 0, 0, 0, 0, 0, 0, 0, 0
"M1142811", 12.47, 1,    7145.24,  -37.6,   0.99246, 0, 0, 0, 0, 0, 0, 0, 0
"M1069565", 12.47, 2,    7367.95, -164.0,    1.0234, 0, 0, 0, 0, 0, 0, 0, 0
"L2785536", 12.47, 2,    7367.66, -164.0,    1.0233, 0, 0, 0, 0, 0, 0, 0, 0
"L3104114", 12.47, 2,    7284.18, -165.8,    1.0118, 0, 0, 0, 0, 0, 0, 0, 0
"M1009824", 12.47, 2,    7281.08, -165.8,    1.0113, 0, 0, 0, 0, 0, 0, 0, 0
"L2745848", 12.47, 1,    7325.08,  -43.4,    1.0174, 2,    7332.64, -165.3,    1.0185, 3,     7332.4,   80.5,    1.0185
"L2673308", 12.47, 1,    7324.11,  -43.4,    1.0173, 2,    7329.31, -165.3,     1.018, 3,    7331.44,   80.5,    1.0183
"L2991939", 12.47, 1,    7322.25,  -43.4,     1.017, 2,       7323, -165.3,    1.0171, 3,    7329.45,   80.4,     1.018
"L2916606", 12.47, 3,    7363.25,   82.6,    1.0227, 0, 0, 0, 0, 0, 0, 0, 0
"L2822864", 12.47, 3,    7363.15,   82.6,    1.0227, 0, 0, 0, 0, 0, 0, 0, 0
"M1142851", 12.47, 1,    7134.47,  -37.4,   0.99096, 2,    7285.03, -157.7,    1.0119, 3,    7481.71,   83.7,    1.0392
"196-31070", 12.47, 1,    7132.52,  -37.5,   0.99069, 2,    7283.98, -157.7,    1.0117, 3,    7481.56,   83.7,    1.0392
"M1209822", 12.47, 3,    7471.74,   86.0,    1.0378, 0, 0, 0, 0, 0, 0, 0, 0
"M1209823", 12.47, 3,    7468.54,   86.0,    1.0374, 0, 0, 0, 0, 0, 0, 0, 0
"M1069550", 12.47, 2,    7372.17, -164.0,     1.024, 0, 0, 0, 0, 0, 0, 0, 0
"M1069551", 12.47, 2,     7371.8, -164.0,    1.0239, 0, 0, 0, 0, 0, 0, 0, 0
"L3141397", 12.47, 2,    7182.05, -165.6,   0.99757, 0, 0, 0, 0, 0, 0, 0, 0
"L3649299", 12.47, 1,    7339.03,  -43.7,    1.0194, 0, 0, 0, 0, 0, 0, 0, 0
"M3772794", 12.47, 1,    7338.98,  -43.7,    1.0194, 0, 0, 0, 0, 0, 0, 0, 0
"P895106", 12.47, 2,    7175.24, -159.7,   0.99662, 0, 0, 0, 0, 0, 0, 0, 0
"L3048887", 12.47, 2,     7174.8, -159.7,   0.99656, 0, 0, 0, 0, 0, 0, 0, 0
"M1047824", 12.47, 2,    7156.31, -165.7,   0.99399, 0, 0, 0, 0, 0, 0, 0, 0
"M1047834", 12.47, 2,     7151.9, -165.7,   0.99338, 0, 0, 0, 0, 0, 0, 0, 0
...